* Gate definitions, 16x16 multiplier

.global vdd vss

.subckt not out in
xmp out in vdd vdd pmos params: w=1u l=0.2u
xmn out in vss vss nmos params: w=0.5u l=0.2u
.ends

.subckt nor out in1 in2
xmp2 int in2 vdd vdd pmos params: w=1u l=0.2u
xmp1 out in1 int vdd pmos params: w=1u l=0.2u
xmn1 out in1 vss vss nmos params: w=0.5u l=0.2u
xmn2 out in2 vss vss nmos params: w=0.5u l=0.2u
.ends

.subckt and out in1 in2
xmp2 outx in2 vdd vdd pmos params: w=1u l=0.2u
xmp1 outx in1 vdd vdd pmos params: w=1u l=0.2u
xmn1 outx in1 int vss nmos params: w=0.5u l=0.2u
xmn2 int  in2 vss vss nmos params: w=0.5u l=0.2u
xmp3 out outx vdd vdd pmos params: w=1u l=0.2u
xmn3 out outx vss vss nmos params: w=0.5u l=0.2u
.ends

.subckt c6288 N1 N18 N35 N52 N69 N86 N103 N120 N137 N154 N171 N188 N205 N222 N239 N256 N273 N290 N307 N324 N341 N358 N375 N392 N409 N426 N443 N460 N477 N494 N511 N528 N545 N1581 N1901 N2223 N2548 N2877 N3211 N3552 N3895 N4241 N4591 N4946 N5308 N5672 N5971 N6123 N6150 N6160 N6170 N6180 N6190 N6200 N6210 N6220 N6230 N6240 N6250 N6260 N6270 N6280 N6288 N6287
xAND2_1 N545 N1 N273 and
xAND2_2 N546 N1 N290 and
xAND2_3 N549 N1 N307 and
xAND2_4 N552 N1 N324 and
xAND2_5 N555 N1 N341 and
xAND2_6 N558 N1 N358 and
xAND2_7 N561 N1 N375 and
xAND2_8 N564 N1 N392 and
xAND2_9 N567 N1 N409 and
xAND2_10 N570 N1 N426 and
xAND2_11 N573 N1 N443 and
xAND2_12 N576 N1 N460 and
xAND2_13 N579 N1 N477 and
xAND2_14 N582 N1 N494 and
xAND2_15 N585 N1 N511 and
xAND2_16 N588 N1 N528 and
xAND2_17 N591 N18 N273 and
xAND2_18 N594 N18 N290 and
xAND2_19 N597 N18 N307 and
xAND2_20 N600 N18 N324 and
xAND2_21 N603 N18 N341 and
xAND2_22 N606 N18 N358 and
xAND2_23 N609 N18 N375 and
xAND2_24 N612 N18 N392 and
xAND2_25 N615 N18 N409 and
xAND2_26 N618 N18 N426 and
xAND2_27 N621 N18 N443 and
xAND2_28 N624 N18 N460 and
xAND2_29 N627 N18 N477 and
xAND2_30 N630 N18 N494 and
xAND2_31 N633 N18 N511 and
xAND2_32 N636 N18 N528 and
xAND2_33 N639 N35 N273 and
xAND2_34 N642 N35 N290 and
xAND2_35 N645 N35 N307 and
xAND2_36 N648 N35 N324 and
xAND2_37 N651 N35 N341 and
xAND2_38 N654 N35 N358 and
xAND2_39 N657 N35 N375 and
xAND2_40 N660 N35 N392 and
xAND2_41 N663 N35 N409 and
xAND2_42 N666 N35 N426 and
xAND2_43 N669 N35 N443 and
xAND2_44 N672 N35 N460 and
xAND2_45 N675 N35 N477 and
xAND2_46 N678 N35 N494 and
xAND2_47 N681 N35 N511 and
xAND2_48 N684 N35 N528 and
xAND2_49 N687 N52 N273 and
xAND2_50 N690 N52 N290 and
xAND2_51 N693 N52 N307 and
xAND2_52 N696 N52 N324 and
xAND2_53 N699 N52 N341 and
xAND2_54 N702 N52 N358 and
xAND2_55 N705 N52 N375 and
xAND2_56 N708 N52 N392 and
xAND2_57 N711 N52 N409 and
xAND2_58 N714 N52 N426 and
xAND2_59 N717 N52 N443 and
xAND2_60 N720 N52 N460 and
xAND2_61 N723 N52 N477 and
xAND2_62 N726 N52 N494 and
xAND2_63 N729 N52 N511 and
xAND2_64 N732 N52 N528 and
xAND2_65 N735 N69 N273 and
xAND2_66 N738 N69 N290 and
xAND2_67 N741 N69 N307 and
xAND2_68 N744 N69 N324 and
xAND2_69 N747 N69 N341 and
xAND2_70 N750 N69 N358 and
xAND2_71 N753 N69 N375 and
xAND2_72 N756 N69 N392 and
xAND2_73 N759 N69 N409 and
xAND2_74 N762 N69 N426 and
xAND2_75 N765 N69 N443 and
xAND2_76 N768 N69 N460 and
xAND2_77 N771 N69 N477 and
xAND2_78 N774 N69 N494 and
xAND2_79 N777 N69 N511 and
xAND2_80 N780 N69 N528 and
xAND2_81 N783 N86 N273 and
xAND2_82 N786 N86 N290 and
xAND2_83 N789 N86 N307 and
xAND2_84 N792 N86 N324 and
xAND2_85 N795 N86 N341 and
xAND2_86 N798 N86 N358 and
xAND2_87 N801 N86 N375 and
xAND2_88 N804 N86 N392 and
xAND2_89 N807 N86 N409 and
xAND2_90 N810 N86 N426 and
xAND2_91 N813 N86 N443 and
xAND2_92 N816 N86 N460 and
xAND2_93 N819 N86 N477 and
xAND2_94 N822 N86 N494 and
xAND2_95 N825 N86 N511 and
xAND2_96 N828 N86 N528 and
xAND2_97 N831 N103 N273 and
xAND2_98 N834 N103 N290 and
xAND2_99 N837 N103 N307 and
xAND2_100 N840 N103 N324 and
xAND2_101 N843 N103 N341 and
xAND2_102 N846 N103 N358 and
xAND2_103 N849 N103 N375 and
xAND2_104 N852 N103 N392 and
xAND2_105 N855 N103 N409 and
xAND2_106 N858 N103 N426 and
xAND2_107 N861 N103 N443 and
xAND2_108 N864 N103 N460 and
xAND2_109 N867 N103 N477 and
xAND2_110 N870 N103 N494 and
xAND2_111 N873 N103 N511 and
xAND2_112 N876 N103 N528 and
xAND2_113 N879 N120 N273 and
xAND2_114 N882 N120 N290 and
xAND2_115 N885 N120 N307 and
xAND2_116 N888 N120 N324 and
xAND2_117 N891 N120 N341 and
xAND2_118 N894 N120 N358 and
xAND2_119 N897 N120 N375 and
xAND2_120 N900 N120 N392 and
xAND2_121 N903 N120 N409 and
xAND2_122 N906 N120 N426 and
xAND2_123 N909 N120 N443 and
xAND2_124 N912 N120 N460 and
xAND2_125 N915 N120 N477 and
xAND2_126 N918 N120 N494 and
xAND2_127 N921 N120 N511 and
xAND2_128 N924 N120 N528 and
xAND2_129 N927 N137 N273 and
xAND2_130 N930 N137 N290 and
xAND2_131 N933 N137 N307 and
xAND2_132 N936 N137 N324 and
xAND2_133 N939 N137 N341 and
xAND2_134 N942 N137 N358 and
xAND2_135 N945 N137 N375 and
xAND2_136 N948 N137 N392 and
xAND2_137 N951 N137 N409 and
xAND2_138 N954 N137 N426 and
xAND2_139 N957 N137 N443 and
xAND2_140 N960 N137 N460 and
xAND2_141 N963 N137 N477 and
xAND2_142 N966 N137 N494 and
xAND2_143 N969 N137 N511 and
xAND2_144 N972 N137 N528 and
xAND2_145 N975 N154 N273 and
xAND2_146 N978 N154 N290 and
xAND2_147 N981 N154 N307 and
xAND2_148 N984 N154 N324 and
xAND2_149 N987 N154 N341 and
xAND2_150 N990 N154 N358 and
xAND2_151 N993 N154 N375 and
xAND2_152 N996 N154 N392 and
xAND2_153 N999 N154 N409 and
xAND2_154 N1002 N154 N426 and
xAND2_155 N1005 N154 N443 and
xAND2_156 N1008 N154 N460 and
xAND2_157 N1011 N154 N477 and
xAND2_158 N1014 N154 N494 and
xAND2_159 N1017 N154 N511 and
xAND2_160 N1020 N154 N528 and
xAND2_161 N1023 N171 N273 and
xAND2_162 N1026 N171 N290 and
xAND2_163 N1029 N171 N307 and
xAND2_164 N1032 N171 N324 and
xAND2_165 N1035 N171 N341 and
xAND2_166 N1038 N171 N358 and
xAND2_167 N1041 N171 N375 and
xAND2_168 N1044 N171 N392 and
xAND2_169 N1047 N171 N409 and
xAND2_170 N1050 N171 N426 and
xAND2_171 N1053 N171 N443 and
xAND2_172 N1056 N171 N460 and
xAND2_173 N1059 N171 N477 and
xAND2_174 N1062 N171 N494 and
xAND2_175 N1065 N171 N511 and
xAND2_176 N1068 N171 N528 and
xAND2_177 N1071 N188 N273 and
xAND2_178 N1074 N188 N290 and
xAND2_179 N1077 N188 N307 and
xAND2_180 N1080 N188 N324 and
xAND2_181 N1083 N188 N341 and
xAND2_182 N1086 N188 N358 and
xAND2_183 N1089 N188 N375 and
xAND2_184 N1092 N188 N392 and
xAND2_185 N1095 N188 N409 and
xAND2_186 N1098 N188 N426 and
xAND2_187 N1101 N188 N443 and
xAND2_188 N1104 N188 N460 and
xAND2_189 N1107 N188 N477 and
xAND2_190 N1110 N188 N494 and
xAND2_191 N1113 N188 N511 and
xAND2_192 N1116 N188 N528 and
xAND2_193 N1119 N205 N273 and
xAND2_194 N1122 N205 N290 and
xAND2_195 N1125 N205 N307 and
xAND2_196 N1128 N205 N324 and
xAND2_197 N1131 N205 N341 and
xAND2_198 N1134 N205 N358 and
xAND2_199 N1137 N205 N375 and
xAND2_200 N1140 N205 N392 and
xAND2_201 N1143 N205 N409 and
xAND2_202 N1146 N205 N426 and
xAND2_203 N1149 N205 N443 and
xAND2_204 N1152 N205 N460 and
xAND2_205 N1155 N205 N477 and
xAND2_206 N1158 N205 N494 and
xAND2_207 N1161 N205 N511 and
xAND2_208 N1164 N205 N528 and
xAND2_209 N1167 N222 N273 and
xAND2_210 N1170 N222 N290 and
xAND2_211 N1173 N222 N307 and
xAND2_212 N1176 N222 N324 and
xAND2_213 N1179 N222 N341 and
xAND2_214 N1182 N222 N358 and
xAND2_215 N1185 N222 N375 and
xAND2_216 N1188 N222 N392 and
xAND2_217 N1191 N222 N409 and
xAND2_218 N1194 N222 N426 and
xAND2_219 N1197 N222 N443 and
xAND2_220 N1200 N222 N460 and
xAND2_221 N1203 N222 N477 and
xAND2_222 N1206 N222 N494 and
xAND2_223 N1209 N222 N511 and
xAND2_224 N1212 N222 N528 and
xAND2_225 N1215 N239 N273 and
xAND2_226 N1218 N239 N290 and
xAND2_227 N1221 N239 N307 and
xAND2_228 N1224 N239 N324 and
xAND2_229 N1227 N239 N341 and
xAND2_230 N1230 N239 N358 and
xAND2_231 N1233 N239 N375 and
xAND2_232 N1236 N239 N392 and
xAND2_233 N1239 N239 N409 and
xAND2_234 N1242 N239 N426 and
xAND2_235 N1245 N239 N443 and
xAND2_236 N1248 N239 N460 and
xAND2_237 N1251 N239 N477 and
xAND2_238 N1254 N239 N494 and
xAND2_239 N1257 N239 N511 and
xAND2_240 N1260 N239 N528 and
xAND2_241 N1263 N256 N273 and
xAND2_242 N1266 N256 N290 and
xAND2_243 N1269 N256 N307 and
xAND2_244 N1272 N256 N324 and
xAND2_245 N1275 N256 N341 and
xAND2_246 N1278 N256 N358 and
xAND2_247 N1281 N256 N375 and
xAND2_248 N1284 N256 N392 and
xAND2_249 N1287 N256 N409 and
xAND2_250 N1290 N256 N426 and
xAND2_251 N1293 N256 N443 and
xAND2_252 N1296 N256 N460 and
xAND2_253 N1299 N256 N477 and
xAND2_254 N1302 N256 N494 and
xAND2_255 N1305 N256 N511 and
xAND2_256 N1308 N256 N528 and
xNOT1_257 N1311 N591 not
xNOT1_258 N1315 N639 not
xNOT1_259 N1319 N687 not
xNOT1_260 N1323 N735 not
xNOT1_261 N1327 N783 not
xNOT1_262 N1331 N831 not
xNOT1_263 N1335 N879 not
xNOT1_264 N1339 N927 not
xNOT1_265 N1343 N975 not
xNOT1_266 N1347 N1023 not
xNOT1_267 N1351 N1071 not
xNOT1_268 N1355 N1119 not
xNOT1_269 N1359 N1167 not
xNOT1_270 N1363 N1215 not
xNOT1_271 N1367 N1263 not
xNOR2_272 N1371 N591 N1311 nor
xNOT1_273 N1372 N1311 not
xNOR2_274 N1373 N639 N1315 nor
xNOT1_275 N1374 N1315 not
xNOR2_276 N1375 N687 N1319 nor
xNOT1_277 N1376 N1319 not
xNOR2_278 N1377 N735 N1323 nor
xNOT1_279 N1378 N1323 not
xNOR2_280 N1379 N783 N1327 nor
xNOT1_281 N1380 N1327 not
xNOR2_282 N1381 N831 N1331 nor
xNOT1_283 N1382 N1331 not
xNOR2_284 N1383 N879 N1335 nor
xNOT1_285 N1384 N1335 not
xNOR2_286 N1385 N927 N1339 nor
xNOT1_287 N1386 N1339 not
xNOR2_288 N1387 N975 N1343 nor
xNOT1_289 N1388 N1343 not
xNOR2_290 N1389 N1023 N1347 nor
xNOT1_291 N1390 N1347 not
xNOR2_292 N1391 N1071 N1351 nor
xNOT1_293 N1392 N1351 not
xNOR2_294 N1393 N1119 N1355 nor
xNOT1_295 N1394 N1355 not
xNOR2_296 N1395 N1167 N1359 nor
xNOT1_297 N1396 N1359 not
xNOR2_298 N1397 N1215 N1363 nor
xNOT1_299 N1398 N1363 not
xNOR2_300 N1399 N1263 N1367 nor
xNOT1_301 N1400 N1367 not
xNOR2_302 N1401 N1371 N1372 nor
xNOR2_303 N1404 N1373 N1374 nor
xNOR2_304 N1407 N1375 N1376 nor
xNOR2_305 N1410 N1377 N1378 nor
xNOR2_306 N1413 N1379 N1380 nor
xNOR2_307 N1416 N1381 N1382 nor
xNOR2_308 N1419 N1383 N1384 nor
xNOR2_309 N1422 N1385 N1386 nor
xNOR2_310 N1425 N1387 N1388 nor
xNOR2_311 N1428 N1389 N1390 nor
xNOR2_312 N1431 N1391 N1392 nor
xNOR2_313 N1434 N1393 N1394 nor
xNOR2_314 N1437 N1395 N1396 nor
xNOR2_315 N1440 N1397 N1398 nor
xNOR2_316 N1443 N1399 N1400 nor
xNOR2_317 N1446 N1401 N546 nor
xNOR2_318 N1450 N1404 N594 nor
xNOR2_319 N1454 N1407 N642 nor
xNOR2_320 N1458 N1410 N690 nor
xNOR2_321 N1462 N1413 N738 nor
xNOR2_322 N1466 N1416 N786 nor
xNOR2_323 N1470 N1419 N834 nor
xNOR2_324 N1474 N1422 N882 nor
xNOR2_325 N1478 N1425 N930 nor
xNOR2_326 N1482 N1428 N978 nor
xNOR2_327 N1486 N1431 N1026 nor
xNOR2_328 N1490 N1434 N1074 nor
xNOR2_329 N1494 N1437 N1122 nor
xNOR2_330 N1498 N1440 N1170 nor
xNOR2_331 N1502 N1443 N1218 nor
xNOR2_332 N1506 N1401 N1446 nor
xNOR2_333 N1507 N1446 N546 nor
xNOR2_334 N1508 N1311 N1446 nor
xNOR2_335 N1511 N1404 N1450 nor
xNOR2_336 N1512 N1450 N594 nor
xNOR2_337 N1513 N1315 N1450 nor
xNOR2_338 N1516 N1407 N1454 nor
xNOR2_339 N1517 N1454 N642 nor
xNOR2_340 N1518 N1319 N1454 nor
xNOR2_341 N1521 N1410 N1458 nor
xNOR2_342 N1522 N1458 N690 nor
xNOR2_343 N1523 N1323 N1458 nor
xNOR2_344 N1526 N1413 N1462 nor
xNOR2_345 N1527 N1462 N738 nor
xNOR2_346 N1528 N1327 N1462 nor
xNOR2_347 N1531 N1416 N1466 nor
xNOR2_348 N1532 N1466 N786 nor
xNOR2_349 N1533 N1331 N1466 nor
xNOR2_350 N1536 N1419 N1470 nor
xNOR2_351 N1537 N1470 N834 nor
xNOR2_352 N1538 N1335 N1470 nor
xNOR2_353 N1541 N1422 N1474 nor
xNOR2_354 N1542 N1474 N882 nor
xNOR2_355 N1543 N1339 N1474 nor
xNOR2_356 N1546 N1425 N1478 nor
xNOR2_357 N1547 N1478 N930 nor
xNOR2_358 N1548 N1343 N1478 nor
xNOR2_359 N1551 N1428 N1482 nor
xNOR2_360 N1552 N1482 N978 nor
xNOR2_361 N1553 N1347 N1482 nor
xNOR2_362 N1556 N1431 N1486 nor
xNOR2_363 N1557 N1486 N1026 nor
xNOR2_364 N1558 N1351 N1486 nor
xNOR2_365 N1561 N1434 N1490 nor
xNOR2_366 N1562 N1490 N1074 nor
xNOR2_367 N1563 N1355 N1490 nor
xNOR2_368 N1566 N1437 N1494 nor
xNOR2_369 N1567 N1494 N1122 nor
xNOR2_370 N1568 N1359 N1494 nor
xNOR2_371 N1571 N1440 N1498 nor
xNOR2_372 N1572 N1498 N1170 nor
xNOR2_373 N1573 N1363 N1498 nor
xNOR2_374 N1576 N1443 N1502 nor
xNOR2_375 N1577 N1502 N1218 nor
xNOR2_376 N1578 N1367 N1502 nor
xNOR2_377 N1581 N1506 N1507 nor
xNOR2_378 N1582 N1511 N1512 nor
xNOR2_379 N1585 N1516 N1517 nor
xNOR2_380 N1588 N1521 N1522 nor
xNOR2_381 N1591 N1526 N1527 nor
xNOR2_382 N1594 N1531 N1532 nor
xNOR2_383 N1597 N1536 N1537 nor
xNOR2_384 N1600 N1541 N1542 nor
xNOR2_385 N1603 N1546 N1547 nor
xNOR2_386 N1606 N1551 N1552 nor
xNOR2_387 N1609 N1556 N1557 nor
xNOR2_388 N1612 N1561 N1562 nor
xNOR2_389 N1615 N1566 N1567 nor
xNOR2_390 N1618 N1571 N1572 nor
xNOR2_391 N1621 N1576 N1577 nor
xNOR2_392 N1624 N1266 N1578 nor
xNOR2_393 N1628 N1582 N1508 nor
xNOR2_394 N1632 N1585 N1513 nor
xNOR2_395 N1636 N1588 N1518 nor
xNOR2_396 N1640 N1591 N1523 nor
xNOR2_397 N1644 N1594 N1528 nor
xNOR2_398 N1648 N1597 N1533 nor
xNOR2_399 N1652 N1600 N1538 nor
xNOR2_400 N1656 N1603 N1543 nor
xNOR2_401 N1660 N1606 N1548 nor
xNOR2_402 N1664 N1609 N1553 nor
xNOR2_403 N1668 N1612 N1558 nor
xNOR2_404 N1672 N1615 N1563 nor
xNOR2_405 N1676 N1618 N1568 nor
xNOR2_406 N1680 N1621 N1573 nor
xNOR2_407 N1684 N1266 N1624 nor
xNOR2_408 N1685 N1624 N1578 nor
xNOR2_409 N1686 N1582 N1628 nor
xNOR2_410 N1687 N1628 N1508 nor
xNOR2_411 N1688 N1585 N1632 nor
xNOR2_412 N1689 N1632 N1513 nor
xNOR2_413 N1690 N1588 N1636 nor
xNOR2_414 N1691 N1636 N1518 nor
xNOR2_415 N1692 N1591 N1640 nor
xNOR2_416 N1693 N1640 N1523 nor
xNOR2_417 N1694 N1594 N1644 nor
xNOR2_418 N1695 N1644 N1528 nor
xNOR2_419 N1696 N1597 N1648 nor
xNOR2_420 N1697 N1648 N1533 nor
xNOR2_421 N1698 N1600 N1652 nor
xNOR2_422 N1699 N1652 N1538 nor
xNOR2_423 N1700 N1603 N1656 nor
xNOR2_424 N1701 N1656 N1543 nor
xNOR2_425 N1702 N1606 N1660 nor
xNOR2_426 N1703 N1660 N1548 nor
xNOR2_427 N1704 N1609 N1664 nor
xNOR2_428 N1705 N1664 N1553 nor
xNOR2_429 N1706 N1612 N1668 nor
xNOR2_430 N1707 N1668 N1558 nor
xNOR2_431 N1708 N1615 N1672 nor
xNOR2_432 N1709 N1672 N1563 nor
xNOR2_433 N1710 N1618 N1676 nor
xNOR2_434 N1711 N1676 N1568 nor
xNOR2_435 N1712 N1621 N1680 nor
xNOR2_436 N1713 N1680 N1573 nor
xNOR2_437 N1714 N1684 N1685 nor
xNOR2_438 N1717 N1686 N1687 nor
xNOR2_439 N1720 N1688 N1689 nor
xNOR2_440 N1723 N1690 N1691 nor
xNOR2_441 N1726 N1692 N1693 nor
xNOR2_442 N1729 N1694 N1695 nor
xNOR2_443 N1732 N1696 N1697 nor
xNOR2_444 N1735 N1698 N1699 nor
xNOR2_445 N1738 N1700 N1701 nor
xNOR2_446 N1741 N1702 N1703 nor
xNOR2_447 N1744 N1704 N1705 nor
xNOR2_448 N1747 N1706 N1707 nor
xNOR2_449 N1750 N1708 N1709 nor
xNOR2_450 N1753 N1710 N1711 nor
xNOR2_451 N1756 N1712 N1713 nor
xNOR2_452 N1759 N1714 N1221 nor
xNOR2_453 N1763 N1717 N549 nor
xNOR2_454 N1767 N1720 N597 nor
xNOR2_455 N1771 N1723 N645 nor
xNOR2_456 N1775 N1726 N693 nor
xNOR2_457 N1779 N1729 N741 nor
xNOR2_458 N1783 N1732 N789 nor
xNOR2_459 N1787 N1735 N837 nor
xNOR2_460 N1791 N1738 N885 nor
xNOR2_461 N1795 N1741 N933 nor
xNOR2_462 N1799 N1744 N981 nor
xNOR2_463 N1803 N1747 N1029 nor
xNOR2_464 N1807 N1750 N1077 nor
xNOR2_465 N1811 N1753 N1125 nor
xNOR2_466 N1815 N1756 N1173 nor
xNOR2_467 N1819 N1714 N1759 nor
xNOR2_468 N1820 N1759 N1221 nor
xNOR2_469 N1821 N1624 N1759 nor
xNOR2_470 N1824 N1717 N1763 nor
xNOR2_471 N1825 N1763 N549 nor
xNOR2_472 N1826 N1628 N1763 nor
xNOR2_473 N1829 N1720 N1767 nor
xNOR2_474 N1830 N1767 N597 nor
xNOR2_475 N1831 N1632 N1767 nor
xNOR2_476 N1834 N1723 N1771 nor
xNOR2_477 N1835 N1771 N645 nor
xNOR2_478 N1836 N1636 N1771 nor
xNOR2_479 N1839 N1726 N1775 nor
xNOR2_480 N1840 N1775 N693 nor
xNOR2_481 N1841 N1640 N1775 nor
xNOR2_482 N1844 N1729 N1779 nor
xNOR2_483 N1845 N1779 N741 nor
xNOR2_484 N1846 N1644 N1779 nor
xNOR2_485 N1849 N1732 N1783 nor
xNOR2_486 N1850 N1783 N789 nor
xNOR2_487 N1851 N1648 N1783 nor
xNOR2_488 N1854 N1735 N1787 nor
xNOR2_489 N1855 N1787 N837 nor
xNOR2_490 N1856 N1652 N1787 nor
xNOR2_491 N1859 N1738 N1791 nor
xNOR2_492 N1860 N1791 N885 nor
xNOR2_493 N1861 N1656 N1791 nor
xNOR2_494 N1864 N1741 N1795 nor
xNOR2_495 N1865 N1795 N933 nor
xNOR2_496 N1866 N1660 N1795 nor
xNOR2_497 N1869 N1744 N1799 nor
xNOR2_498 N1870 N1799 N981 nor
xNOR2_499 N1871 N1664 N1799 nor
xNOR2_500 N1874 N1747 N1803 nor
xNOR2_501 N1875 N1803 N1029 nor
xNOR2_502 N1876 N1668 N1803 nor
xNOR2_503 N1879 N1750 N1807 nor
xNOR2_504 N1880 N1807 N1077 nor
xNOR2_505 N1881 N1672 N1807 nor
xNOR2_506 N1884 N1753 N1811 nor
xNOR2_507 N1885 N1811 N1125 nor
xNOR2_508 N1886 N1676 N1811 nor
xNOR2_509 N1889 N1756 N1815 nor
xNOR2_510 N1890 N1815 N1173 nor
xNOR2_511 N1891 N1680 N1815 nor
xNOR2_512 N1894 N1819 N1820 nor
xNOR2_513 N1897 N1269 N1821 nor
xNOR2_514 N1901 N1824 N1825 nor
xNOR2_515 N1902 N1829 N1830 nor
xNOR2_516 N1905 N1834 N1835 nor
xNOR2_517 N1908 N1839 N1840 nor
xNOR2_518 N1911 N1844 N1845 nor
xNOR2_519 N1914 N1849 N1850 nor
xNOR2_520 N1917 N1854 N1855 nor
xNOR2_521 N1920 N1859 N1860 nor
xNOR2_522 N1923 N1864 N1865 nor
xNOR2_523 N1926 N1869 N1870 nor
xNOR2_524 N1929 N1874 N1875 nor
xNOR2_525 N1932 N1879 N1880 nor
xNOR2_526 N1935 N1884 N1885 nor
xNOR2_527 N1938 N1889 N1890 nor
xNOR2_528 N1941 N1894 N1891 nor
xNOR2_529 N1945 N1269 N1897 nor
xNOR2_530 N1946 N1897 N1821 nor
xNOR2_531 N1947 N1902 N1826 nor
xNOR2_532 N1951 N1905 N1831 nor
xNOR2_533 N1955 N1908 N1836 nor
xNOR2_534 N1959 N1911 N1841 nor
xNOR2_535 N1963 N1914 N1846 nor
xNOR2_536 N1967 N1917 N1851 nor
xNOR2_537 N1971 N1920 N1856 nor
xNOR2_538 N1975 N1923 N1861 nor
xNOR2_539 N1979 N1926 N1866 nor
xNOR2_540 N1983 N1929 N1871 nor
xNOR2_541 N1987 N1932 N1876 nor
xNOR2_542 N1991 N1935 N1881 nor
xNOR2_543 N1995 N1938 N1886 nor
xNOR2_544 N1999 N1894 N1941 nor
xNOR2_545 N2000 N1941 N1891 nor
xNOR2_546 N2001 N1945 N1946 nor
xNOR2_547 N2004 N1902 N1947 nor
xNOR2_548 N2005 N1947 N1826 nor
xNOR2_549 N2006 N1905 N1951 nor
xNOR2_550 N2007 N1951 N1831 nor
xNOR2_551 N2008 N1908 N1955 nor
xNOR2_552 N2009 N1955 N1836 nor
xNOR2_553 N2010 N1911 N1959 nor
xNOR2_554 N2011 N1959 N1841 nor
xNOR2_555 N2012 N1914 N1963 nor
xNOR2_556 N2013 N1963 N1846 nor
xNOR2_557 N2014 N1917 N1967 nor
xNOR2_558 N2015 N1967 N1851 nor
xNOR2_559 N2016 N1920 N1971 nor
xNOR2_560 N2017 N1971 N1856 nor
xNOR2_561 N2018 N1923 N1975 nor
xNOR2_562 N2019 N1975 N1861 nor
xNOR2_563 N2020 N1926 N1979 nor
xNOR2_564 N2021 N1979 N1866 nor
xNOR2_565 N2022 N1929 N1983 nor
xNOR2_566 N2023 N1983 N1871 nor
xNOR2_567 N2024 N1932 N1987 nor
xNOR2_568 N2025 N1987 N1876 nor
xNOR2_569 N2026 N1935 N1991 nor
xNOR2_570 N2027 N1991 N1881 nor
xNOR2_571 N2028 N1938 N1995 nor
xNOR2_572 N2029 N1995 N1886 nor
xNOR2_573 N2030 N1999 N2000 nor
xNOR2_574 N2033 N2001 N1224 nor
xNOR2_575 N2037 N2004 N2005 nor
xNOR2_576 N2040 N2006 N2007 nor
xNOR2_577 N2043 N2008 N2009 nor
xNOR2_578 N2046 N2010 N2011 nor
xNOR2_579 N2049 N2012 N2013 nor
xNOR2_580 N2052 N2014 N2015 nor
xNOR2_581 N2055 N2016 N2017 nor
xNOR2_582 N2058 N2018 N2019 nor
xNOR2_583 N2061 N2020 N2021 nor
xNOR2_584 N2064 N2022 N2023 nor
xNOR2_585 N2067 N2024 N2025 nor
xNOR2_586 N2070 N2026 N2027 nor
xNOR2_587 N2073 N2028 N2029 nor
xNOR2_588 N2076 N2030 N1176 nor
xNOR2_589 N2080 N2001 N2033 nor
xNOR2_590 N2081 N2033 N1224 nor
xNOR2_591 N2082 N1897 N2033 nor
xNOR2_592 N2085 N2037 N552 nor
xNOR2_593 N2089 N2040 N600 nor
xNOR2_594 N2093 N2043 N648 nor
xNOR2_595 N2097 N2046 N696 nor
xNOR2_596 N2101 N2049 N744 nor
xNOR2_597 N2105 N2052 N792 nor
xNOR2_598 N2109 N2055 N840 nor
xNOR2_599 N2113 N2058 N888 nor
xNOR2_600 N2117 N2061 N936 nor
xNOR2_601 N2121 N2064 N984 nor
xNOR2_602 N2125 N2067 N1032 nor
xNOR2_603 N2129 N2070 N1080 nor
xNOR2_604 N2133 N2073 N1128 nor
xNOR2_605 N2137 N2030 N2076 nor
xNOR2_606 N2138 N2076 N1176 nor
xNOR2_607 N2139 N1941 N2076 nor
xNOR2_608 N2142 N2080 N2081 nor
xNOR2_609 N2145 N1272 N2082 nor
xNOR2_610 N2149 N2037 N2085 nor
xNOR2_611 N2150 N2085 N552 nor
xNOR2_612 N2151 N1947 N2085 nor
xNOR2_613 N2154 N2040 N2089 nor
xNOR2_614 N2155 N2089 N600 nor
xNOR2_615 N2156 N1951 N2089 nor
xNOR2_616 N2159 N2043 N2093 nor
xNOR2_617 N2160 N2093 N648 nor
xNOR2_618 N2161 N1955 N2093 nor
xNOR2_619 N2164 N2046 N2097 nor
xNOR2_620 N2165 N2097 N696 nor
xNOR2_621 N2166 N1959 N2097 nor
xNOR2_622 N2169 N2049 N2101 nor
xNOR2_623 N2170 N2101 N744 nor
xNOR2_624 N2171 N1963 N2101 nor
xNOR2_625 N2174 N2052 N2105 nor
xNOR2_626 N2175 N2105 N792 nor
xNOR2_627 N2176 N1967 N2105 nor
xNOR2_628 N2179 N2055 N2109 nor
xNOR2_629 N2180 N2109 N840 nor
xNOR2_630 N2181 N1971 N2109 nor
xNOR2_631 N2184 N2058 N2113 nor
xNOR2_632 N2185 N2113 N888 nor
xNOR2_633 N2186 N1975 N2113 nor
xNOR2_634 N2189 N2061 N2117 nor
xNOR2_635 N2190 N2117 N936 nor
xNOR2_636 N2191 N1979 N2117 nor
xNOR2_637 N2194 N2064 N2121 nor
xNOR2_638 N2195 N2121 N984 nor
xNOR2_639 N2196 N1983 N2121 nor
xNOR2_640 N2199 N2067 N2125 nor
xNOR2_641 N2200 N2125 N1032 nor
xNOR2_642 N2201 N1987 N2125 nor
xNOR2_643 N2204 N2070 N2129 nor
xNOR2_644 N2205 N2129 N1080 nor
xNOR2_645 N2206 N1991 N2129 nor
xNOR2_646 N2209 N2073 N2133 nor
xNOR2_647 N2210 N2133 N1128 nor
xNOR2_648 N2211 N1995 N2133 nor
xNOR2_649 N2214 N2137 N2138 nor
xNOR2_650 N2217 N2142 N2139 nor
xNOR2_651 N2221 N1272 N2145 nor
xNOR2_652 N2222 N2145 N2082 nor
xNOR2_653 N2223 N2149 N2150 nor
xNOR2_654 N2224 N2154 N2155 nor
xNOR2_655 N2227 N2159 N2160 nor
xNOR2_656 N2230 N2164 N2165 nor
xNOR2_657 N2233 N2169 N2170 nor
xNOR2_658 N2236 N2174 N2175 nor
xNOR2_659 N2239 N2179 N2180 nor
xNOR2_660 N2242 N2184 N2185 nor
xNOR2_661 N2245 N2189 N2190 nor
xNOR2_662 N2248 N2194 N2195 nor
xNOR2_663 N2251 N2199 N2200 nor
xNOR2_664 N2254 N2204 N2205 nor
xNOR2_665 N2257 N2209 N2210 nor
xNOR2_666 N2260 N2214 N2211 nor
xNOR2_667 N2264 N2142 N2217 nor
xNOR2_668 N2265 N2217 N2139 nor
xNOR2_669 N2266 N2221 N2222 nor
xNOR2_670 N2269 N2224 N2151 nor
xNOR2_671 N2273 N2227 N2156 nor
xNOR2_672 N2277 N2230 N2161 nor
xNOR2_673 N2281 N2233 N2166 nor
xNOR2_674 N2285 N2236 N2171 nor
xNOR2_675 N2289 N2239 N2176 nor
xNOR2_676 N2293 N2242 N2181 nor
xNOR2_677 N2297 N2245 N2186 nor
xNOR2_678 N2301 N2248 N2191 nor
xNOR2_679 N2305 N2251 N2196 nor
xNOR2_680 N2309 N2254 N2201 nor
xNOR2_681 N2313 N2257 N2206 nor
xNOR2_682 N2317 N2214 N2260 nor
xNOR2_683 N2318 N2260 N2211 nor
xNOR2_684 N2319 N2264 N2265 nor
xNOR2_685 N2322 N2266 N1227 nor
xNOR2_686 N2326 N2224 N2269 nor
xNOR2_687 N2327 N2269 N2151 nor
xNOR2_688 N2328 N2227 N2273 nor
xNOR2_689 N2329 N2273 N2156 nor
xNOR2_690 N2330 N2230 N2277 nor
xNOR2_691 N2331 N2277 N2161 nor
xNOR2_692 N2332 N2233 N2281 nor
xNOR2_693 N2333 N2281 N2166 nor
xNOR2_694 N2334 N2236 N2285 nor
xNOR2_695 N2335 N2285 N2171 nor
xNOR2_696 N2336 N2239 N2289 nor
xNOR2_697 N2337 N2289 N2176 nor
xNOR2_698 N2338 N2242 N2293 nor
xNOR2_699 N2339 N2293 N2181 nor
xNOR2_700 N2340 N2245 N2297 nor
xNOR2_701 N2341 N2297 N2186 nor
xNOR2_702 N2342 N2248 N2301 nor
xNOR2_703 N2343 N2301 N2191 nor
xNOR2_704 N2344 N2251 N2305 nor
xNOR2_705 N2345 N2305 N2196 nor
xNOR2_706 N2346 N2254 N2309 nor
xNOR2_707 N2347 N2309 N2201 nor
xNOR2_708 N2348 N2257 N2313 nor
xNOR2_709 N2349 N2313 N2206 nor
xNOR2_710 N2350 N2317 N2318 nor
xNOR2_711 N2353 N2319 N1179 nor
xNOR2_712 N2357 N2266 N2322 nor
xNOR2_713 N2358 N2322 N1227 nor
xNOR2_714 N2359 N2145 N2322 nor
xNOR2_715 N2362 N2326 N2327 nor
xNOR2_716 N2365 N2328 N2329 nor
xNOR2_717 N2368 N2330 N2331 nor
xNOR2_718 N2371 N2332 N2333 nor
xNOR2_719 N2374 N2334 N2335 nor
xNOR2_720 N2377 N2336 N2337 nor
xNOR2_721 N2380 N2338 N2339 nor
xNOR2_722 N2383 N2340 N2341 nor
xNOR2_723 N2386 N2342 N2343 nor
xNOR2_724 N2389 N2344 N2345 nor
xNOR2_725 N2392 N2346 N2347 nor
xNOR2_726 N2395 N2348 N2349 nor
xNOR2_727 N2398 N2350 N1131 nor
xNOR2_728 N2402 N2319 N2353 nor
xNOR2_729 N2403 N2353 N1179 nor
xNOR2_730 N2404 N2217 N2353 nor
xNOR2_731 N2407 N2357 N2358 nor
xNOR2_732 N2410 N1275 N2359 nor
xNOR2_733 N2414 N2362 N555 nor
xNOR2_734 N2418 N2365 N603 nor
xNOR2_735 N2422 N2368 N651 nor
xNOR2_736 N2426 N2371 N699 nor
xNOR2_737 N2430 N2374 N747 nor
xNOR2_738 N2434 N2377 N795 nor
xNOR2_739 N2438 N2380 N843 nor
xNOR2_740 N2442 N2383 N891 nor
xNOR2_741 N2446 N2386 N939 nor
xNOR2_742 N2450 N2389 N987 nor
xNOR2_743 N2454 N2392 N1035 nor
xNOR2_744 N2458 N2395 N1083 nor
xNOR2_745 N2462 N2350 N2398 nor
xNOR2_746 N2463 N2398 N1131 nor
xNOR2_747 N2464 N2260 N2398 nor
xNOR2_748 N2467 N2402 N2403 nor
xNOR2_749 N2470 N2407 N2404 nor
xNOR2_750 N2474 N1275 N2410 nor
xNOR2_751 N2475 N2410 N2359 nor
xNOR2_752 N2476 N2362 N2414 nor
xNOR2_753 N2477 N2414 N555 nor
xNOR2_754 N2478 N2269 N2414 nor
xNOR2_755 N2481 N2365 N2418 nor
xNOR2_756 N2482 N2418 N603 nor
xNOR2_757 N2483 N2273 N2418 nor
xNOR2_758 N2486 N2368 N2422 nor
xNOR2_759 N2487 N2422 N651 nor
xNOR2_760 N2488 N2277 N2422 nor
xNOR2_761 N2491 N2371 N2426 nor
xNOR2_762 N2492 N2426 N699 nor
xNOR2_763 N2493 N2281 N2426 nor
xNOR2_764 N2496 N2374 N2430 nor
xNOR2_765 N2497 N2430 N747 nor
xNOR2_766 N2498 N2285 N2430 nor
xNOR2_767 N2501 N2377 N2434 nor
xNOR2_768 N2502 N2434 N795 nor
xNOR2_769 N2503 N2289 N2434 nor
xNOR2_770 N2506 N2380 N2438 nor
xNOR2_771 N2507 N2438 N843 nor
xNOR2_772 N2508 N2293 N2438 nor
xNOR2_773 N2511 N2383 N2442 nor
xNOR2_774 N2512 N2442 N891 nor
xNOR2_775 N2513 N2297 N2442 nor
xNOR2_776 N2516 N2386 N2446 nor
xNOR2_777 N2517 N2446 N939 nor
xNOR2_778 N2518 N2301 N2446 nor
xNOR2_779 N2521 N2389 N2450 nor
xNOR2_780 N2522 N2450 N987 nor
xNOR2_781 N2523 N2305 N2450 nor
xNOR2_782 N2526 N2392 N2454 nor
xNOR2_783 N2527 N2454 N1035 nor
xNOR2_784 N2528 N2309 N2454 nor
xNOR2_785 N2531 N2395 N2458 nor
xNOR2_786 N2532 N2458 N1083 nor
xNOR2_787 N2533 N2313 N2458 nor
xNOR2_788 N2536 N2462 N2463 nor
xNOR2_789 N2539 N2467 N2464 nor
xNOR2_790 N2543 N2407 N2470 nor
xNOR2_791 N2544 N2470 N2404 nor
xNOR2_792 N2545 N2474 N2475 nor
xNOR2_793 N2548 N2476 N2477 nor
xNOR2_794 N2549 N2481 N2482 nor
xNOR2_795 N2552 N2486 N2487 nor
xNOR2_796 N2555 N2491 N2492 nor
xNOR2_797 N2558 N2496 N2497 nor
xNOR2_798 N2561 N2501 N2502 nor
xNOR2_799 N2564 N2506 N2507 nor
xNOR2_800 N2567 N2511 N2512 nor
xNOR2_801 N2570 N2516 N2517 nor
xNOR2_802 N2573 N2521 N2522 nor
xNOR2_803 N2576 N2526 N2527 nor
xNOR2_804 N2579 N2531 N2532 nor
xNOR2_805 N2582 N2536 N2533 nor
xNOR2_806 N2586 N2467 N2539 nor
xNOR2_807 N2587 N2539 N2464 nor
xNOR2_808 N2588 N2543 N2544 nor
xNOR2_809 N2591 N2545 N1230 nor
xNOR2_810 N2595 N2549 N2478 nor
xNOR2_811 N2599 N2552 N2483 nor
xNOR2_812 N2603 N2555 N2488 nor
xNOR2_813 N2607 N2558 N2493 nor
xNOR2_814 N2611 N2561 N2498 nor
xNOR2_815 N2615 N2564 N2503 nor
xNOR2_816 N2619 N2567 N2508 nor
xNOR2_817 N2623 N2570 N2513 nor
xNOR2_818 N2627 N2573 N2518 nor
xNOR2_819 N2631 N2576 N2523 nor
xNOR2_820 N2635 N2579 N2528 nor
xNOR2_821 N2639 N2536 N2582 nor
xNOR2_822 N2640 N2582 N2533 nor
xNOR2_823 N2641 N2586 N2587 nor
xNOR2_824 N2644 N2588 N1182 nor
xNOR2_825 N2648 N2545 N2591 nor
xNOR2_826 N2649 N2591 N1230 nor
xNOR2_827 N2650 N2410 N2591 nor
xNOR2_828 N2653 N2549 N2595 nor
xNOR2_829 N2654 N2595 N2478 nor
xNOR2_830 N2655 N2552 N2599 nor
xNOR2_831 N2656 N2599 N2483 nor
xNOR2_832 N2657 N2555 N2603 nor
xNOR2_833 N2658 N2603 N2488 nor
xNOR2_834 N2659 N2558 N2607 nor
xNOR2_835 N2660 N2607 N2493 nor
xNOR2_836 N2661 N2561 N2611 nor
xNOR2_837 N2662 N2611 N2498 nor
xNOR2_838 N2663 N2564 N2615 nor
xNOR2_839 N2664 N2615 N2503 nor
xNOR2_840 N2665 N2567 N2619 nor
xNOR2_841 N2666 N2619 N2508 nor
xNOR2_842 N2667 N2570 N2623 nor
xNOR2_843 N2668 N2623 N2513 nor
xNOR2_844 N2669 N2573 N2627 nor
xNOR2_845 N2670 N2627 N2518 nor
xNOR2_846 N2671 N2576 N2631 nor
xNOR2_847 N2672 N2631 N2523 nor
xNOR2_848 N2673 N2579 N2635 nor
xNOR2_849 N2674 N2635 N2528 nor
xNOR2_850 N2675 N2639 N2640 nor
xNOR2_851 N2678 N2641 N1134 nor
xNOR2_852 N2682 N2588 N2644 nor
xNOR2_853 N2683 N2644 N1182 nor
xNOR2_854 N2684 N2470 N2644 nor
xNOR2_855 N2687 N2648 N2649 nor
xNOR2_856 N2690 N1278 N2650 nor
xNOR2_857 N2694 N2653 N2654 nor
xNOR2_858 N2697 N2655 N2656 nor
xNOR2_859 N2700 N2657 N2658 nor
xNOR2_860 N2703 N2659 N2660 nor
xNOR2_861 N2706 N2661 N2662 nor
xNOR2_862 N2709 N2663 N2664 nor
xNOR2_863 N2712 N2665 N2666 nor
xNOR2_864 N2715 N2667 N2668 nor
xNOR2_865 N2718 N2669 N2670 nor
xNOR2_866 N2721 N2671 N2672 nor
xNOR2_867 N2724 N2673 N2674 nor
xNOR2_868 N2727 N2675 N1086 nor
xNOR2_869 N2731 N2641 N2678 nor
xNOR2_870 N2732 N2678 N1134 nor
xNOR2_871 N2733 N2539 N2678 nor
xNOR2_872 N2736 N2682 N2683 nor
xNOR2_873 N2739 N2687 N2684 nor
xNOR2_874 N2743 N1278 N2690 nor
xNOR2_875 N2744 N2690 N2650 nor
xNOR2_876 N2745 N2694 N558 nor
xNOR2_877 N2749 N2697 N606 nor
xNOR2_878 N2753 N2700 N654 nor
xNOR2_879 N2757 N2703 N702 nor
xNOR2_880 N2761 N2706 N750 nor
xNOR2_881 N2765 N2709 N798 nor
xNOR2_882 N2769 N2712 N846 nor
xNOR2_883 N2773 N2715 N894 nor
xNOR2_884 N2777 N2718 N942 nor
xNOR2_885 N2781 N2721 N990 nor
xNOR2_886 N2785 N2724 N1038 nor
xNOR2_887 N2789 N2675 N2727 nor
xNOR2_888 N2790 N2727 N1086 nor
xNOR2_889 N2791 N2582 N2727 nor
xNOR2_890 N2794 N2731 N2732 nor
xNOR2_891 N2797 N2736 N2733 nor
xNOR2_892 N2801 N2687 N2739 nor
xNOR2_893 N2802 N2739 N2684 nor
xNOR2_894 N2803 N2743 N2744 nor
xNOR2_895 N2806 N2694 N2745 nor
xNOR2_896 N2807 N2745 N558 nor
xNOR2_897 N2808 N2595 N2745 nor
xNOR2_898 N2811 N2697 N2749 nor
xNOR2_899 N2812 N2749 N606 nor
xNOR2_900 N2813 N2599 N2749 nor
xNOR2_901 N2816 N2700 N2753 nor
xNOR2_902 N2817 N2753 N654 nor
xNOR2_903 N2818 N2603 N2753 nor
xNOR2_904 N2821 N2703 N2757 nor
xNOR2_905 N2822 N2757 N702 nor
xNOR2_906 N2823 N2607 N2757 nor
xNOR2_907 N2826 N2706 N2761 nor
xNOR2_908 N2827 N2761 N750 nor
xNOR2_909 N2828 N2611 N2761 nor
xNOR2_910 N2831 N2709 N2765 nor
xNOR2_911 N2832 N2765 N798 nor
xNOR2_912 N2833 N2615 N2765 nor
xNOR2_913 N2836 N2712 N2769 nor
xNOR2_914 N2837 N2769 N846 nor
xNOR2_915 N2838 N2619 N2769 nor
xNOR2_916 N2841 N2715 N2773 nor
xNOR2_917 N2842 N2773 N894 nor
xNOR2_918 N2843 N2623 N2773 nor
xNOR2_919 N2846 N2718 N2777 nor
xNOR2_920 N2847 N2777 N942 nor
xNOR2_921 N2848 N2627 N2777 nor
xNOR2_922 N2851 N2721 N2781 nor
xNOR2_923 N2852 N2781 N990 nor
xNOR2_924 N2853 N2631 N2781 nor
xNOR2_925 N2856 N2724 N2785 nor
xNOR2_926 N2857 N2785 N1038 nor
xNOR2_927 N2858 N2635 N2785 nor
xNOR2_928 N2861 N2789 N2790 nor
xNOR2_929 N2864 N2794 N2791 nor
xNOR2_930 N2868 N2736 N2797 nor
xNOR2_931 N2869 N2797 N2733 nor
xNOR2_932 N2870 N2801 N2802 nor
xNOR2_933 N2873 N2803 N1233 nor
xNOR2_934 N2877 N2806 N2807 nor
xNOR2_935 N2878 N2811 N2812 nor
xNOR2_936 N2881 N2816 N2817 nor
xNOR2_937 N2884 N2821 N2822 nor
xNOR2_938 N2887 N2826 N2827 nor
xNOR2_939 N2890 N2831 N2832 nor
xNOR2_940 N2893 N2836 N2837 nor
xNOR2_941 N2896 N2841 N2842 nor