spice 

* RC circuit excited by a pulse train 

vs ( 1 0 ) pulse ( iv=0 pv=1 delay=1u rise=1u fall=1u width=1m period=2m )
r1 1 2 1k
c1 2 0 1u

.options method=trap

.tran 0 1 1u 1u quiet
* > data.out

*.print tran v(1) v(2)
*.tran 0 10m 100u > data.out
*.!gnuplot -e "plot \"data.out\" using 1:3 with lines, \"data.out\" using 1:2 with lines" -p

.status

.end
