.title Top block test simulation
.lib /foss/pdks/ihp-sg13g2/libs.tech/ngspice/models/cornerMOSlv.lib mos_tt
.subckt DP8TClockGenerator_8S1R vss vdd clk decodeclk columnclk precharge_n wl_en we_en
Xnonovl vss vdd clk firststage[0] firststage[1] firststage[2] firststage[3] firststage[4] firststage[5] firststage[6] firstpulse firststage[8] secondstage[0] secondstage[1] secondstage[2] secondstage[3] secondstage[4] secondstage[5] secondstage[6] secondpulse secondstage[8] DP8TNonOverlapClock_8S1R
Xdecodeclkbuf vdd vss clk decodeclk buf_x1
Xprechargeinv vdd vss secondpulse precharge_n inv_x1
Xwlenbuf vdd vss firstpulse wl_en buf_x1
Xcolumnclkbuf vdd vss clk columnclk buf_x1
Xweenbuf vdd vss firstpulse we_en buf_x1
.ends DP8TClockGenerator_8S1R

.subckt DP8TLatchedDecoder_2A2R vss vdd clk a[0] a[1] line[0] line[1] line[2] line[3]
Xaff[0] vdd vss a[0] clk aint[0] DP8TDec_dff_x1
Xaff[1] vdd vss a[1] clk aint[1] DP8TDec_dff_x1
Xainv[0] vdd vss aint[0] aint_n[0] DP8TDec_inv_x1
Xainv[1] vdd vss aint[1] aint_n[1] DP8TDec_inv_x1
Xlinenand[0] vdd vss line_n[0] aint_n[0] aint_n[1] DP8TDec_nand2_x0
Xlinenand[1] vdd vss line_n[1] aint[0] aint_n[1] DP8TDec_nand2_x0
Xlinenand[2] vdd vss line_n[2] aint_n[0] aint[1] DP8TDec_nand2_x0
Xlinenand[3] vdd vss line_n[3] aint[0] aint[1] DP8TDec_nand2_x0
Xlineinv[0] vdd vss line_n[0] line[0] DP8TDec_inv_x2
Xlineinv[1] vdd vss line_n[1] line[1] DP8TDec_inv_x2
Xlineinv[2] vdd vss line_n[2] line[2] DP8TDec_inv_x2
Xlineinv[3] vdd vss line_n[3] line[3] DP8TDec_inv_x2
.ends DP8TLatchedDecoder_2A2R

.subckt DP8TDec_dff_x1 vdd vss i clk q
Xclk_nmos _clk_n clk vss vss sg13_lv_nmos l=0.13um w=0.78um
Xclk_pmos _clk_n clk vdd vdd sg13_lv_pmos l=0.13um w=1.2um
Xclk_n_nmos0 vss _clk_n _clk_buf vss sg13_lv_nmos l=0.13um w=0.78um
Xclk_n_pmos0 vdd _clk_n _clk_buf vdd sg13_lv_pmos l=0.13um w=1.2um
Xi_nmos _u i vss vss sg13_lv_nmos l=0.13um w=0.78um
Xi_pmos _u i vdd vdd sg13_lv_pmos l=0.13um w=1.2um
Xu_nmos vss _u _net0 vss sg13_lv_nmos l=0.13um w=0.78um
Xu_pmos vdd _u _net1 vdd sg13_lv_pmos l=0.13um w=1.2um
Xclk_n_nmos1 _net0 _clk_n _dff_m vss sg13_lv_nmos l=0.13um w=0.78um
Xclk_buf_pmos0 _net1 _clk_buf _dff_m vdd sg13_lv_pmos l=0.13um w=1.2um
Xclk_buf_nmos0 _dff_m _clk_buf _net2 vss sg13_lv_nmos l=0.13um w=0.78um
Xclk_n_pmos1 _dff_m _clk_n _net3 vdd sg13_lv_pmos l=0.13um w=1.2um
Xy_nmos _net2 _y vss vss sg13_lv_nmos l=0.13um w=0.78um
Xy_pmos _net3 _y vdd vdd sg13_lv_pmos l=0.13um w=1.2um
Xdff_m_nmos vss _dff_m _y vss sg13_lv_nmos l=0.13um w=0.78um
Xdff_m_pmos vdd _dff_m _y vdd sg13_lv_pmos l=0.13um w=1.2um
Xclk_buf_nmos1 _y _clk_buf _dff_s vss sg13_lv_nmos l=0.13um w=0.78um
Xclk_n_pmos2 _y _clk_n _dff_s vdd sg13_lv_pmos l=0.13um w=1.2um
Xclk_n_nmos2 _dff_s _clk_n _net4 vss sg13_lv_nmos l=0.13um w=0.78um
Xclk_buf_pmos1 _dff_s _clk_buf _net5 vdd sg13_lv_pmos l=0.13um w=1.2um
Xq_nmos _net4 q vss vss sg13_lv_nmos l=0.13um w=0.78um
Xq_pmos _net5 q vdd vdd sg13_lv_pmos l=0.13um w=1.2um
Xdff_s_nmos vss _dff_s q vss sg13_lv_nmos l=0.13um w=2.17um
Xdff_s_pmos vdd _dff_s q vdd sg13_lv_pmos l=0.13um w=3.77um
.ends DP8TDec_dff_x1

.subckt DP8TDec_inv_x1 vdd vss i nq
Xnmos vss i nq vss sg13_lv_nmos l=0.13um w=2.8um
Xpmos vdd i nq vdd sg13_lv_pmos l=0.13um w=4.4um
.ends DP8TDec_inv_x1

.subckt DP8TDec_and3_x1 vdd vss q i0 i1 i2
Xi0_nmos nq i0 _net0 vss sg13_lv_nmos l=0.13um w=0.78um
Xi0_pmos nq i0 vdd vdd sg13_lv_pmos l=0.13um w=1.2um
Xi1_nmos _net0 i1 _net1 vss sg13_lv_nmos l=0.13um w=0.78um
Xi1_pmos vdd i1 nq vdd sg13_lv_pmos l=0.13um w=1.2um
Xi2_nmos _net1 i2 vss vss sg13_lv_nmos l=0.13um w=0.78um
Xi2_pmos nq i2 vdd vdd sg13_lv_pmos l=0.13um w=1.2um
Xn_pd vss nq q vss sg13_lv_nmos l=0.13um w=2.8um
Xq_pu vdd nq q vdd sg13_lv_pmos l=0.13um w=4.4um
.ends DP8TDec_and3_x1

.subckt DP8TDec_and4_x1 vdd vss q i0 i1 i2 i3
Xi0_nmos nq i0 _net0 vss sg13_lv_nmos l=0.13um w=0.78um
Xi0_pmos vdd i0 nq vdd sg13_lv_pmos l=0.13um w=1.2um
Xi1_nmos _net0 i1 _net1 vss sg13_lv_nmos l=0.13um w=0.78um
Xi1_pmos nq i1 vdd vdd sg13_lv_pmos l=0.13um w=1.2um
Xi2_nmos _net1 i2 _net2 vss sg13_lv_nmos l=0.13um w=0.78um
Xi2_pmos vdd i2 nq vdd sg13_lv_pmos l=0.13um w=1.2um
Xi3_nmos _net2 i3 vss vss sg13_lv_nmos l=0.13um w=0.78um
Xi3_pmos nq i3 vdd vdd sg13_lv_pmos l=0.13um w=1.2um
Xn_pd vss nq q vss sg13_lv_nmos l=0.13um w=2.8um
Xq_pu vdd nq q vdd sg13_lv_pmos l=0.13um w=4.4um
.ends DP8TDec_and4_x1

.subckt DP8TRowPredecoders_3_4B_wl1 vss vdd clk a[0] a[1] a[2] a[3] a[4] a[5] a[6] pd[0][0] pd[0][1] pd[0][2] pd[0][3] pd[0][4] pd[0][5] pd[0][6] pd[0][7] page[0] page[1] page[2] page[3] page[4] page[5] page[6] page[7] page[8] page[9] page[10] page[11] page[12] page[13] page[14] page[15]
Xaff[0] vdd vss a[0] clk aint[0] DP8TDec_dff_x1
Xaff[1] vdd vss a[1] clk aint[1] DP8TDec_dff_x1
Xaff[2] vdd vss a[2] clk aint[2] DP8TDec_dff_x1
Xaff[3] vdd vss a[3] clk aint[3] DP8TDec_dff_x1
Xaff[4] vdd vss a[4] clk aint[4] DP8TDec_dff_x1
Xaff[5] vdd vss a[5] clk aint[5] DP8TDec_dff_x1
Xaff[6] vdd vss a[6] clk aint[6] DP8TDec_dff_x1
Xainv[0] vdd vss aint[0] aint_n[0] DP8TDec_inv_x1
Xainv[1] vdd vss aint[1] aint_n[1] DP8TDec_inv_x1
Xainv[2] vdd vss aint[2] aint_n[2] DP8TDec_inv_x1
Xainv[3] vdd vss aint[3] aint_n[3] DP8TDec_inv_x1
Xainv[4] vdd vss aint[4] aint_n[4] DP8TDec_inv_x1
Xainv[5] vdd vss aint[5] aint_n[5] DP8TDec_inv_x1
Xainv[6] vdd vss aint[6] aint_n[6] DP8TDec_inv_x1
Xpd[0]and[0] vdd vss pd[0][0] aint_n[0] aint_n[1] aint_n[2] DP8TDec_and3_x1
Xpd[0]and[1] vdd vss pd[0][1] aint[0] aint_n[1] aint_n[2] DP8TDec_and3_x1
Xpd[0]and[2] vdd vss pd[0][2] aint_n[0] aint[1] aint_n[2] DP8TDec_and3_x1
Xpd[0]and[3] vdd vss pd[0][3] aint[0] aint[1] aint_n[2] DP8TDec_and3_x1
Xpd[0]and[4] vdd vss pd[0][4] aint_n[0] aint_n[1] aint[2] DP8TDec_and3_x1
Xpd[0]and[5] vdd vss pd[0][5] aint[0] aint_n[1] aint[2] DP8TDec_and3_x1
Xpd[0]and[6] vdd vss pd[0][6] aint_n[0] aint[1] aint[2] DP8TDec_and3_x1
Xpd[0]and[7] vdd vss pd[0][7] aint[0] aint[1] aint[2] DP8TDec_and3_x1
Xpage_and[0] vdd vss page[0] aint_n[3] aint_n[4] aint_n[5] aint_n[6] DP8TDec_and4_x1
Xpage_and[1] vdd vss page[1] aint[3] aint_n[4] aint_n[5] aint_n[6] DP8TDec_and4_x1
Xpage_and[2] vdd vss page[2] aint_n[3] aint[4] aint_n[5] aint_n[6] DP8TDec_and4_x1
Xpage_and[3] vdd vss page[3] aint[3] aint[4] aint_n[5] aint_n[6] DP8TDec_and4_x1
Xpage_and[4] vdd vss page[4] aint_n[3] aint_n[4] aint[5] aint_n[6] DP8TDec_and4_x1
Xpage_and[5] vdd vss page[5] aint[3] aint_n[4] aint[5] aint_n[6] DP8TDec_and4_x1
Xpage_and[6] vdd vss page[6] aint_n[3] aint[4] aint[5] aint_n[6] DP8TDec_and4_x1
Xpage_and[7] vdd vss page[7] aint[3] aint[4] aint[5] aint_n[6] DP8TDec_and4_x1
Xpage_and[8] vdd vss page[8] aint_n[3] aint_n[4] aint_n[5] aint[6] DP8TDec_and4_x1
Xpage_and[9] vdd vss page[9] aint[3] aint_n[4] aint_n[5] aint[6] DP8TDec_and4_x1
Xpage_and[10] vdd vss page[10] aint_n[3] aint[4] aint_n[5] aint[6] DP8TDec_and4_x1
Xpage_and[11] vdd vss page[11] aint[3] aint[4] aint_n[5] aint[6] DP8TDec_and4_x1
Xpage_and[12] vdd vss page[12] aint_n[3] aint_n[4] aint[5] aint[6] DP8TDec_and4_x1
Xpage_and[13] vdd vss page[13] aint[3] aint_n[4] aint[5] aint[6] DP8TDec_and4_x1
Xpage_and[14] vdd vss page[14] aint_n[3] aint[4] aint[5] aint[6] DP8TDec_and4_x1
Xpage_and[15] vdd vss page[15] aint[3] aint[4] aint[5] aint[6] DP8TDec_and4_x1
.ends DP8TRowPredecoders_3_4B_wl1

.subckt DP8TRowDecoderNand3X2 vss vdd pd[0][0] pd[0][1] page wl_en wl_n[0] wl_n[1]
Xnmos[0] wl_n[0] wl_en int[0] vss sg13_lv_nmos l=0.13um w=0.5um
Xnmos[1] int[0] pd[0][0] int[1] vss sg13_lv_nmos l=0.13um w=0.5um
Xnmos[2] int[1] page vss vss sg13_lv_nmos l=0.13um w=0.5um
Xnmos[3] vss page int[2] vss sg13_lv_nmos l=0.13um w=0.5um
Xnmos[4] int[2] pd[0][1] int[3] vss sg13_lv_nmos l=0.13um w=0.5um
Xnmos[5] int[3] wl_en wl_n[1] vss sg13_lv_nmos l=0.13um w=0.5um
Xpmos[0] wl_n[0] wl_en vdd vdd sg13_lv_pmos l=0.13um w=0.5um
Xpmos[1] vdd pd[0][0] wl_n[0] vdd sg13_lv_pmos l=0.13um w=0.5um
Xpmos[2] wl_n[0] page vdd vdd sg13_lv_pmos l=0.13um w=0.5um
Xpmos[3] vdd page wl_n[1] vdd sg13_lv_pmos l=0.13um w=0.5um
Xpmos[4] wl_n[1] pd[0][1] vdd vdd sg13_lv_pmos l=0.13um w=0.5um
Xpmos[5] vdd wl_en wl_n[1] vdd sg13_lv_pmos l=0.13um w=0.5um
.ends DP8TRowDecoderNand3X2

.subckt DP8TWLDrive_26LN100WN26LP200WP_wl1 vss substrate vdd nwell wl_n wl_drive
Xnmos1 vss wl_n wl_drive substrate sg13_lv_nmos l=0.13um w=0.5um
Xnmos2 wl_drive wl_n vss substrate sg13_lv_nmos l=0.13um w=0.5um
Xpmos1 vdd wl_n wl_drive nwell sg13_lv_pmos l=0.13um w=1.0um
Xpmos2 wl_drive wl_n vdd nwell sg13_lv_pmos l=0.13um w=1.0um
.ends DP8TWLDrive_26LN100WN26LP200WP_wl1

.subckt DP8TRowDecoderDriverPage_2PD8R_wl1 vss vdd wl[0] wl[1] wl[2] wl[3] wl[4] wl[5] wl[6] wl[7] pd[0][0] pd[0][1] pd[0][2] pd[0][3] pd[0][4] pd[0][5] pd[0][6] pd[0][7] page wl_en
Xnand3[0] vss vdd pd[0][0] pd[0][1] page wl_en wl_n[0] wl_n[1] DP8TRowDecoderNand3X2
Xnand3[1] vss vdd pd[0][2] pd[0][3] page wl_en wl_n[2] wl_n[3] DP8TRowDecoderNand3X2
Xnand3[2] vss vdd pd[0][4] pd[0][5] page wl_en wl_n[4] wl_n[5] DP8TRowDecoderNand3X2
Xnand3[3] vss vdd pd[0][6] pd[0][7] page wl_en wl_n[6] wl_n[7] DP8TRowDecoderNand3X2
Xdrive[0] vss vss vdd vdd wl_n[0] wl[0] DP8TWLDrive_26LN100WN26LP200WP_wl1
Xdrive[1] vss vss vdd vdd wl_n[1] wl[1] DP8TWLDrive_26LN100WN26LP200WP_wl1
Xdrive[2] vss vss vdd vdd wl_n[2] wl[2] DP8TWLDrive_26LN100WN26LP200WP_wl1
Xdrive[3] vss vss vdd vdd wl_n[3] wl[3] DP8TWLDrive_26LN100WN26LP200WP_wl1
Xdrive[4] vss vss vdd vdd wl_n[4] wl[4] DP8TWLDrive_26LN100WN26LP200WP_wl1
Xdrive[5] vss vss vdd vdd wl_n[5] wl[5] DP8TWLDrive_26LN100WN26LP200WP_wl1
Xdrive[6] vss vss vdd vdd wl_n[6] wl[6] DP8TWLDrive_26LN100WN26LP200WP_wl1
Xdrive[7] vss vss vdd vdd wl_n[7] wl[7] DP8TWLDrive_26LN100WN26LP200WP_wl1
.ends DP8TRowDecoderDriverPage_2PD8R_wl1

.subckt DP8TRowDecoderBulkConn vdd vss

.ends DP8TRowDecoderBulkConn

.subckt DP8TRowDecoder_3_4B_wl1 vss vdd a[0] a[1] a[2] a[3] a[4] a[5] a[6] clk wl_en wl[0] wl[1] wl[2] wl[3] wl[4] wl[5] wl[6] wl[7] wl[8] wl[9] wl[10] wl[11] wl[12] wl[13] wl[14] wl[15] wl[16] wl[17] wl[18] wl[19] wl[20] wl[21] wl[22] wl[23] wl[24] wl[25] wl[26] wl[27] wl[28] wl[29] wl[30] wl[31] wl[32] wl[33] wl[34] wl[35] wl[36] wl[37] wl[38] wl[39] wl[40] wl[41] wl[42] wl[43] wl[44] wl[45] wl[46] wl[47] wl[48] wl[49] wl[50] wl[51] wl[52] wl[53] wl[54] wl[55] wl[56] wl[57] wl[58] wl[59] wl[60] wl[61] wl[62] wl[63] wl[64] wl[65] wl[66] wl[67] wl[68] wl[69] wl[70] wl[71] wl[72] wl[73] wl[74] wl[75] wl[76] wl[77] wl[78] wl[79] wl[80] wl[81] wl[82] wl[83] wl[84] wl[85] wl[86] wl[87] wl[88] wl[89] wl[90] wl[91] wl[92] wl[93] wl[94] wl[95] wl[96] wl[97] wl[98] wl[99] wl[100] wl[101] wl[102] wl[103] wl[104] wl[105] wl[106] wl[107] wl[108] wl[109] wl[110] wl[111] wl[112] wl[113] wl[114] wl[115] wl[116] wl[117] wl[118] wl[119] wl[120] wl[121] wl[122] wl[123] wl[124] wl[125] wl[126] wl[127]
Xpredec vss vdd clk a[0] a[1] a[2] a[3] a[4] a[5] a[6] pd[0][0] pd[0][1] pd[0][2] pd[0][3] pd[0][4] pd[0][5] pd[0][6] pd[0][7] page[0] page[1] page[2] page[3] page[4] page[5] page[6] page[7] page[8] page[9] page[10] page[11] page[12] page[13] page[14] page[15] DP8TRowPredecoders_3_4B_wl1
Xpage[0] vss vdd wl[0] wl[1] wl[2] wl[3] wl[4] wl[5] wl[6] wl[7] pd[0][0] pd[0][1] pd[0][2] pd[0][3] pd[0][4] pd[0][5] pd[0][6] pd[0][7] page[0] wl_en DP8TRowDecoderDriverPage_2PD8R_wl1
Xpage[1] vss vdd wl[8] wl[9] wl[10] wl[11] wl[12] wl[13] wl[14] wl[15] pd[0][0] pd[0][1] pd[0][2] pd[0][3] pd[0][4] pd[0][5] pd[0][6] pd[0][7] page[1] wl_en DP8TRowDecoderDriverPage_2PD8R_wl1
Xpage[2] vss vdd wl[16] wl[17] wl[18] wl[19] wl[20] wl[21] wl[22] wl[23] pd[0][0] pd[0][1] pd[0][2] pd[0][3] pd[0][4] pd[0][5] pd[0][6] pd[0][7] page[2] wl_en DP8TRowDecoderDriverPage_2PD8R_wl1
Xpage[3] vss vdd wl[24] wl[25] wl[26] wl[27] wl[28] wl[29] wl[30] wl[31] pd[0][0] pd[0][1] pd[0][2] pd[0][3] pd[0][4] pd[0][5] pd[0][6] pd[0][7] page[3] wl_en DP8TRowDecoderDriverPage_2PD8R_wl1
Xpage[4] vss vdd wl[32] wl[33] wl[34] wl[35] wl[36] wl[37] wl[38] wl[39] pd[0][0] pd[0][1] pd[0][2] pd[0][3] pd[0][4] pd[0][5] pd[0][6] pd[0][7] page[4] wl_en DP8TRowDecoderDriverPage_2PD8R_wl1
Xpage[5] vss vdd wl[40] wl[41] wl[42] wl[43] wl[44] wl[45] wl[46] wl[47] pd[0][0] pd[0][1] pd[0][2] pd[0][3] pd[0][4] pd[0][5] pd[0][6] pd[0][7] page[5] wl_en DP8TRowDecoderDriverPage_2PD8R_wl1
Xpage[6] vss vdd wl[48] wl[49] wl[50] wl[51] wl[52] wl[53] wl[54] wl[55] pd[0][0] pd[0][1] pd[0][2] pd[0][3] pd[0][4] pd[0][5] pd[0][6] pd[0][7] page[6] wl_en DP8TRowDecoderDriverPage_2PD8R_wl1
Xpage[7] vss vdd wl[56] wl[57] wl[58] wl[59] wl[60] wl[61] wl[62] wl[63] pd[0][0] pd[0][1] pd[0][2] pd[0][3] pd[0][4] pd[0][5] pd[0][6] pd[0][7] page[7] wl_en DP8TRowDecoderDriverPage_2PD8R_wl1
Xpage[8] vss vdd wl[64] wl[65] wl[66] wl[67] wl[68] wl[69] wl[70] wl[71] pd[0][0] pd[0][1] pd[0][2] pd[0][3] pd[0][4] pd[0][5] pd[0][6] pd[0][7] page[8] wl_en DP8TRowDecoderDriverPage_2PD8R_wl1
Xpage[9] vss vdd wl[72] wl[73] wl[74] wl[75] wl[76] wl[77] wl[78] wl[79] pd[0][0] pd[0][1] pd[0][2] pd[0][3] pd[0][4] pd[0][5] pd[0][6] pd[0][7] page[9] wl_en DP8TRowDecoderDriverPage_2PD8R_wl1
Xpage[10] vss vdd wl[80] wl[81] wl[82] wl[83] wl[84] wl[85] wl[86] wl[87] pd[0][0] pd[0][1] pd[0][2] pd[0][3] pd[0][4] pd[0][5] pd[0][6] pd[0][7] page[10] wl_en DP8TRowDecoderDriverPage_2PD8R_wl1
Xpage[11] vss vdd wl[88] wl[89] wl[90] wl[91] wl[92] wl[93] wl[94] wl[95] pd[0][0] pd[0][1] pd[0][2] pd[0][3] pd[0][4] pd[0][5] pd[0][6] pd[0][7] page[11] wl_en DP8TRowDecoderDriverPage_2PD8R_wl1
Xpage[12] vss vdd wl[96] wl[97] wl[98] wl[99] wl[100] wl[101] wl[102] wl[103] pd[0][0] pd[0][1] pd[0][2] pd[0][3] pd[0][4] pd[0][5] pd[0][6] pd[0][7] page[12] wl_en DP8TRowDecoderDriverPage_2PD8R_wl1
Xpage[13] vss vdd wl[104] wl[105] wl[106] wl[107] wl[108] wl[109] wl[110] wl[111] pd[0][0] pd[0][1] pd[0][2] pd[0][3] pd[0][4] pd[0][5] pd[0][6] pd[0][7] page[13] wl_en DP8TRowDecoderDriverPage_2PD8R_wl1
Xpage[14] vss vdd wl[112] wl[113] wl[114] wl[115] wl[116] wl[117] wl[118] wl[119] pd[0][0] pd[0][1] pd[0][2] pd[0][3] pd[0][4] pd[0][5] pd[0][6] pd[0][7] page[14] wl_en DP8TRowDecoderDriverPage_2PD8R_wl1
Xpage[15] vss vdd wl[120] wl[121] wl[122] wl[123] wl[124] wl[125] wl[126] wl[127] pd[0][0] pd[0][1] pd[0][2] pd[0][3] pd[0][4] pd[0][5] pd[0][6] pd[0][7] page[15] wl_en DP8TRowDecoderDriverPage_2PD8R_wl1
Xbulkcon[0] vdd vss DP8TRowDecoderBulkConn
Xbulkcon[1] vdd vss DP8TRowDecoderBulkConn
Xbulkcon[2] vdd vss DP8TRowDecoderBulkConn
Xbulkcon[3] vdd vss DP8TRowDecoderBulkConn
Xbulkcon[4] vdd vss DP8TRowDecoderBulkConn
Xbulkcon[5] vdd vss DP8TRowDecoderBulkConn
Xbulkcon[6] vdd vss DP8TRowDecoderBulkConn
Xbulkcon[7] vdd vss DP8TRowDecoderBulkConn
Xbulkcon[8] vdd vss DP8TRowDecoderBulkConn
.ends DP8TRowDecoder_3_4B_wl1

.subckt DP8TRowPeriphery_3_4_2_wl1 vss vdd clk a[0] a[1] a[2] a[3] a[4] a[5] a[6] a[7] a[8] wl[0] wl[1] wl[2] wl[3] wl[4] wl[5] wl[6] wl[7] wl[8] wl[9] wl[10] wl[11] wl[12] wl[13] wl[14] wl[15] wl[16] wl[17] wl[18] wl[19] wl[20] wl[21] wl[22] wl[23] wl[24] wl[25] wl[26] wl[27] wl[28] wl[29] wl[30] wl[31] wl[32] wl[33] wl[34] wl[35] wl[36] wl[37] wl[38] wl[39] wl[40] wl[41] wl[42] wl[43] wl[44] wl[45] wl[46] wl[47] wl[48] wl[49] wl[50] wl[51] wl[52] wl[53] wl[54] wl[55] wl[56] wl[57] wl[58] wl[59] wl[60] wl[61] wl[62] wl[63] wl[64] wl[65] wl[66] wl[67] wl[68] wl[69] wl[70] wl[71] wl[72] wl[73] wl[74] wl[75] wl[76] wl[77] wl[78] wl[79] wl[80] wl[81] wl[82] wl[83] wl[84] wl[85] wl[86] wl[87] wl[88] wl[89] wl[90] wl[91] wl[92] wl[93] wl[94] wl[95] wl[96] wl[97] wl[98] wl[99] wl[100] wl[101] wl[102] wl[103] wl[104] wl[105] wl[106] wl[107] wl[108] wl[109] wl[110] wl[111] wl[112] wl[113] wl[114] wl[115] wl[116] wl[117] wl[118] wl[119] wl[120] wl[121] wl[122] wl[123] wl[124] wl[125] wl[126] wl[127] mux[0] mux[1] mux[2] mux[3] columnclk precharge_n we_en
Xclkgen vss vdd clk decodeclk columnclk precharge_n wl_en we_en DP8TClockGenerator_8S1R
Xcoldec vss vdd decodeclk a[0] a[1] mux[0] mux[1] mux[2] mux[3] DP8TLatchedDecoder_2A2R
Xrowdec vss vdd a[2] a[3] a[4] a[5] a[6] a[7] a[8] decodeclk wl_en wl[0] wl[1] wl[2] wl[3] wl[4] wl[5] wl[6] wl[7] wl[8] wl[9] wl[10] wl[11] wl[12] wl[13] wl[14] wl[15] wl[16] wl[17] wl[18] wl[19] wl[20] wl[21] wl[22] wl[23] wl[24] wl[25] wl[26] wl[27] wl[28] wl[29] wl[30] wl[31] wl[32] wl[33] wl[34] wl[35] wl[36] wl[37] wl[38] wl[39] wl[40] wl[41] wl[42] wl[43] wl[44] wl[45] wl[46] wl[47] wl[48] wl[49] wl[50] wl[51] wl[52] wl[53] wl[54] wl[55] wl[56] wl[57] wl[58] wl[59] wl[60] wl[61] wl[62] wl[63] wl[64] wl[65] wl[66] wl[67] wl[68] wl[69] wl[70] wl[71] wl[72] wl[73] wl[74] wl[75] wl[76] wl[77] wl[78] wl[79] wl[80] wl[81] wl[82] wl[83] wl[84] wl[85] wl[86] wl[87] wl[88] wl[89] wl[90] wl[91] wl[92] wl[93] wl[94] wl[95] wl[96] wl[97] wl[98] wl[99] wl[100] wl[101] wl[102] wl[103] wl[104] wl[105] wl[106] wl[107] wl[108] wl[109] wl[110] wl[111] wl[112] wl[113] wl[114] wl[115] wl[116] wl[117] wl[118] wl[119] wl[120] wl[121] wl[122] wl[123] wl[124] wl[125] wl[126] wl[127] DP8TRowDecoder_3_4B_wl1
.ends DP8TRowPeriphery_3_4_2_wl1

.subckt nand2_x0 vdd vss nq i0 i1
Xi0_nmos vss i0 _net0 vss sg13_lv_nmos l=0.13um w=0.78um
Xi0_pmos vdd i0 nq vdd sg13_lv_pmos l=0.13um w=0.78um
Xi1_nmos _net0 i1 nq vss sg13_lv_nmos l=0.13um w=0.78um
Xi1_pmos nq i1 vdd vdd sg13_lv_pmos l=0.13um w=0.78um
.ends nand2_x0

.subckt inv_x0 vdd vss i nq
Xnmos vss i nq vss sg13_lv_nmos l=0.13um w=0.78um
Xpmos vdd i nq vdd sg13_lv_pmos l=0.13um w=0.78um
.ends inv_x0

.subckt DP8TNonOverlapClock_8S1R vss vdd clk firststage[0] firststage[1] firststage[2] firststage[3] firststage[4] firststage[5] firststage[6] firststage[7] firststage[8] secondstage[0] secondstage[1] secondstage[2] secondstage[3] secondstage[4] secondstage[5] secondstage[6] secondstage[7] secondstage[8]
Xclkinv vdd vss clk clk_n inv_x0
Xfirstnand2 vdd vss firststage[0] clk secondstage[8] nand2_x0
Xfirststage[0] vdd vss firststage[0] firststage[1] inv_x0
Xfirststage[1] vdd vss firststage[1] firststage[2] inv_x0
Xfirststage[2] vdd vss firststage[2] firststage[3] inv_x0
Xfirststage[3] vdd vss firststage[3] firststage[4] inv_x0
Xfirststage[4] vdd vss firststage[4] firststage[5] inv_x0
Xfirststage[5] vdd vss firststage[5] firststage[6] inv_x0
Xfirststage[6] vdd vss firststage[6] firststage[7] inv_x0
Xfirststage[7] vdd vss firststage[7] firststage[8] inv_x0
Xsecondnand2 vdd vss secondstage[0] clk_n firststage[8] nand2_x0
Xsecondstage[0] vdd vss secondstage[0] secondstage[1] inv_x0
Xsecondstage[1] vdd vss secondstage[1] secondstage[2] inv_x0
Xsecondstage[2] vdd vss secondstage[2] secondstage[3] inv_x0
Xsecondstage[3] vdd vss secondstage[3] secondstage[4] inv_x0
Xsecondstage[4] vdd vss secondstage[4] secondstage[5] inv_x0
Xsecondstage[5] vdd vss secondstage[5] secondstage[6] inv_x0
Xsecondstage[6] vdd vss secondstage[6] secondstage[7] inv_x0
Xsecondstage[7] vdd vss secondstage[7] secondstage[8] inv_x0
.ends DP8TNonOverlapClock_8S1R

.subckt inv_x1 vdd vss i nq
Xnmos vss i nq vss sg13_lv_nmos l=0.13um w=1.46um
Xpmos vdd i nq vdd sg13_lv_pmos l=0.13um w=1.45um
.ends inv_x1

.subckt buf_x1 vdd vss i q
Xstage0_nmos _i_n i vss vss sg13_lv_nmos l=0.13um w=0.78um
Xstage0_pmos _i_n i vdd vdd sg13_lv_pmos l=0.13um w=0.78um
Xnmos vss _i_n q vss sg13_lv_nmos l=0.13um w=1.07um
Xpmos vdd _i_n q vdd sg13_lv_pmos l=0.13um w=1.06um
.ends buf_x1

.subckt DP8TDec_nand2_x0 vdd vss nq i0 i1
Xi0_nmos vss i0 _net0 vss sg13_lv_nmos l=0.13um w=0.78um
Xi0_pmos vdd i0 nq vdd sg13_lv_pmos l=0.13um w=1.2um
Xi1_nmos _net0 i1 nq vss sg13_lv_nmos l=0.13um w=0.78um
Xi1_pmos nq i1 vdd vdd sg13_lv_pmos l=0.13um w=1.2um
.ends DP8TDec_nand2_x0

.subckt DP8TDec_inv_x2 vdd vss i nq
Xnmos[0] vss i nq vss sg13_lv_nmos l=0.13um w=2.8um
Xpmos[0] vdd i nq vdd sg13_lv_pmos l=0.13um w=4.4um
Xnmos[1] nq i vss vss sg13_lv_nmos l=0.13um w=2.8um
Xpmos[1] nq i vdd vdd sg13_lv_pmos l=0.13um w=4.4um
.ends DP8TDec_inv_x2

.subckt DP8TRowPredecoders_3_4B_wl2 vss vdd clk a[0] a[1] a[2] a[3] a[4] a[5] a[6] pd[0][0] pd[0][1] pd[0][2] pd[0][3] pd[0][4] pd[0][5] pd[0][6] pd[0][7] page[0] page[1] page[2] page[3] page[4] page[5] page[6] page[7] page[8] page[9] page[10] page[11] page[12] page[13] page[14] page[15]
Xaff[0] vdd vss a[0] clk aint[0] DP8TDec_dff_x1
Xaff[1] vdd vss a[1] clk aint[1] DP8TDec_dff_x1
Xaff[2] vdd vss a[2] clk aint[2] DP8TDec_dff_x1
Xaff[3] vdd vss a[3] clk aint[3] DP8TDec_dff_x1
Xaff[4] vdd vss a[4] clk aint[4] DP8TDec_dff_x1
Xaff[5] vdd vss a[5] clk aint[5] DP8TDec_dff_x1
Xaff[6] vdd vss a[6] clk aint[6] DP8TDec_dff_x1
Xainv[0] vdd vss aint[0] aint_n[0] DP8TDec_inv_x1
Xainv[1] vdd vss aint[1] aint_n[1] DP8TDec_inv_x1
Xainv[2] vdd vss aint[2] aint_n[2] DP8TDec_inv_x1
Xainv[3] vdd vss aint[3] aint_n[3] DP8TDec_inv_x1
Xainv[4] vdd vss aint[4] aint_n[4] DP8TDec_inv_x1
Xainv[5] vdd vss aint[5] aint_n[5] DP8TDec_inv_x1
Xainv[6] vdd vss aint[6] aint_n[6] DP8TDec_inv_x1
Xpd[0]and[0] vdd vss pd[0][0] aint_n[0] aint_n[1] aint_n[2] DP8TDec_and3_x1
Xpd[0]and[1] vdd vss pd[0][1] aint[0] aint_n[1] aint_n[2] DP8TDec_and3_x1
Xpd[0]and[2] vdd vss pd[0][2] aint_n[0] aint[1] aint_n[2] DP8TDec_and3_x1
Xpd[0]and[3] vdd vss pd[0][3] aint[0] aint[1] aint_n[2] DP8TDec_and3_x1
Xpd[0]and[4] vdd vss pd[0][4] aint_n[0] aint_n[1] aint[2] DP8TDec_and3_x1
Xpd[0]and[5] vdd vss pd[0][5] aint[0] aint_n[1] aint[2] DP8TDec_and3_x1
Xpd[0]and[6] vdd vss pd[0][6] aint_n[0] aint[1] aint[2] DP8TDec_and3_x1
Xpd[0]and[7] vdd vss pd[0][7] aint[0] aint[1] aint[2] DP8TDec_and3_x1
Xpage_and[0] vdd vss page[0] aint_n[3] aint_n[4] aint_n[5] aint_n[6] DP8TDec_and4_x1
Xpage_and[1] vdd vss page[1] aint[3] aint_n[4] aint_n[5] aint_n[6] DP8TDec_and4_x1
Xpage_and[2] vdd vss page[2] aint_n[3] aint[4] aint_n[5] aint_n[6] DP8TDec_and4_x1
Xpage_and[3] vdd vss page[3] aint[3] aint[4] aint_n[5] aint_n[6] DP8TDec_and4_x1
Xpage_and[4] vdd vss page[4] aint_n[3] aint_n[4] aint[5] aint_n[6] DP8TDec_and4_x1
Xpage_and[5] vdd vss page[5] aint[3] aint_n[4] aint[5] aint_n[6] DP8TDec_and4_x1
Xpage_and[6] vdd vss page[6] aint_n[3] aint[4] aint[5] aint_n[6] DP8TDec_and4_x1
Xpage_and[7] vdd vss page[7] aint[3] aint[4] aint[5] aint_n[6] DP8TDec_and4_x1
Xpage_and[8] vdd vss page[8] aint_n[3] aint_n[4] aint_n[5] aint[6] DP8TDec_and4_x1
Xpage_and[9] vdd vss page[9] aint[3] aint_n[4] aint_n[5] aint[6] DP8TDec_and4_x1
Xpage_and[10] vdd vss page[10] aint_n[3] aint[4] aint_n[5] aint[6] DP8TDec_and4_x1
Xpage_and[11] vdd vss page[11] aint[3] aint[4] aint_n[5] aint[6] DP8TDec_and4_x1
Xpage_and[12] vdd vss page[12] aint_n[3] aint_n[4] aint[5] aint[6] DP8TDec_and4_x1
Xpage_and[13] vdd vss page[13] aint[3] aint_n[4] aint[5] aint[6] DP8TDec_and4_x1
Xpage_and[14] vdd vss page[14] aint_n[3] aint[4] aint[5] aint[6] DP8TDec_and4_x1
Xpage_and[15] vdd vss page[15] aint[3] aint[4] aint[5] aint[6] DP8TDec_and4_x1
.ends DP8TRowPredecoders_3_4B_wl2

.subckt DP8TWLDrive_26LN100WN26LP200WP_wl2 vss substrate vdd nwell wl_n wl_drive
Xnmos1 vss wl_n wl_drive substrate sg13_lv_nmos l=0.13um w=0.5um
Xnmos2 wl_drive wl_n vss substrate sg13_lv_nmos l=0.13um w=0.5um
Xpmos1 vdd wl_n wl_drive nwell sg13_lv_pmos l=0.13um w=1.0um
Xpmos2 wl_drive wl_n vdd nwell sg13_lv_pmos l=0.13um w=1.0um
.ends DP8TWLDrive_26LN100WN26LP200WP_wl2

.subckt DP8TRowDecoderDriverPage_2PD8R_wl2 vss vdd wl[0] wl[1] wl[2] wl[3] wl[4] wl[5] wl[6] wl[7] pd[0][0] pd[0][1] pd[0][2] pd[0][3] pd[0][4] pd[0][5] pd[0][6] pd[0][7] page wl_en
Xnand3[0] vss vdd pd[0][0] pd[0][1] page wl_en wl_n[0] wl_n[1] DP8TRowDecoderNand3X2
Xnand3[1] vss vdd pd[0][2] pd[0][3] page wl_en wl_n[2] wl_n[3] DP8TRowDecoderNand3X2
Xnand3[2] vss vdd pd[0][4] pd[0][5] page wl_en wl_n[4] wl_n[5] DP8TRowDecoderNand3X2
Xnand3[3] vss vdd pd[0][6] pd[0][7] page wl_en wl_n[6] wl_n[7] DP8TRowDecoderNand3X2
Xdrive[0] vss vss vdd vdd wl_n[0] wl[0] DP8TWLDrive_26LN100WN26LP200WP_wl2
Xdrive[1] vss vss vdd vdd wl_n[1] wl[1] DP8TWLDrive_26LN100WN26LP200WP_wl2
Xdrive[2] vss vss vdd vdd wl_n[2] wl[2] DP8TWLDrive_26LN100WN26LP200WP_wl2
Xdrive[3] vss vss vdd vdd wl_n[3] wl[3] DP8TWLDrive_26LN100WN26LP200WP_wl2
Xdrive[4] vss vss vdd vdd wl_n[4] wl[4] DP8TWLDrive_26LN100WN26LP200WP_wl2
Xdrive[5] vss vss vdd vdd wl_n[5] wl[5] DP8TWLDrive_26LN100WN26LP200WP_wl2
Xdrive[6] vss vss vdd vdd wl_n[6] wl[6] DP8TWLDrive_26LN100WN26LP200WP_wl2
Xdrive[7] vss vss vdd vdd wl_n[7] wl[7] DP8TWLDrive_26LN100WN26LP200WP_wl2
.ends DP8TRowDecoderDriverPage_2PD8R_wl2

.subckt DP8TRowDecoder_3_4B_wl2 vss vdd a[0] a[1] a[2] a[3] a[4] a[5] a[6] clk wl_en wl[0] wl[1] wl[2] wl[3] wl[4] wl[5] wl[6] wl[7] wl[8] wl[9] wl[10] wl[11] wl[12] wl[13] wl[14] wl[15] wl[16] wl[17] wl[18] wl[19] wl[20] wl[21] wl[22] wl[23] wl[24] wl[25] wl[26] wl[27] wl[28] wl[29] wl[30] wl[31] wl[32] wl[33] wl[34] wl[35] wl[36] wl[37] wl[38] wl[39] wl[40] wl[41] wl[42] wl[43] wl[44] wl[45] wl[46] wl[47] wl[48] wl[49] wl[50] wl[51] wl[52] wl[53] wl[54] wl[55] wl[56] wl[57] wl[58] wl[59] wl[60] wl[61] wl[62] wl[63] wl[64] wl[65] wl[66] wl[67] wl[68] wl[69] wl[70] wl[71] wl[72] wl[73] wl[74] wl[75] wl[76] wl[77] wl[78] wl[79] wl[80] wl[81] wl[82] wl[83] wl[84] wl[85] wl[86] wl[87] wl[88] wl[89] wl[90] wl[91] wl[92] wl[93] wl[94] wl[95] wl[96] wl[97] wl[98] wl[99] wl[100] wl[101] wl[102] wl[103] wl[104] wl[105] wl[106] wl[107] wl[108] wl[109] wl[110] wl[111] wl[112] wl[113] wl[114] wl[115] wl[116] wl[117] wl[118] wl[119] wl[120] wl[121] wl[122] wl[123] wl[124] wl[125] wl[126] wl[127]
Xpredec vss vdd clk a[0] a[1] a[2] a[3] a[4] a[5] a[6] pd[0][0] pd[0][1] pd[0][2] pd[0][3] pd[0][4] pd[0][5] pd[0][6] pd[0][7] page[0] page[1] page[2] page[3] page[4] page[5] page[6] page[7] page[8] page[9] page[10] page[11] page[12] page[13] page[14] page[15] DP8TRowPredecoders_3_4B_wl2
Xpage[0] vss vdd wl[0] wl[1] wl[2] wl[3] wl[4] wl[5] wl[6] wl[7] pd[0][0] pd[0][1] pd[0][2] pd[0][3] pd[0][4] pd[0][5] pd[0][6] pd[0][7] page[0] wl_en DP8TRowDecoderDriverPage_2PD8R_wl2
Xpage[1] vss vdd wl[8] wl[9] wl[10] wl[11] wl[12] wl[13] wl[14] wl[15] pd[0][0] pd[0][1] pd[0][2] pd[0][3] pd[0][4] pd[0][5] pd[0][6] pd[0][7] page[1] wl_en DP8TRowDecoderDriverPage_2PD8R_wl2
Xpage[2] vss vdd wl[16] wl[17] wl[18] wl[19] wl[20] wl[21] wl[22] wl[23] pd[0][0] pd[0][1] pd[0][2] pd[0][3] pd[0][4] pd[0][5] pd[0][6] pd[0][7] page[2] wl_en DP8TRowDecoderDriverPage_2PD8R_wl2
Xpage[3] vss vdd wl[24] wl[25] wl[26] wl[27] wl[28] wl[29] wl[30] wl[31] pd[0][0] pd[0][1] pd[0][2] pd[0][3] pd[0][4] pd[0][5] pd[0][6] pd[0][7] page[3] wl_en DP8TRowDecoderDriverPage_2PD8R_wl2
Xpage[4] vss vdd wl[32] wl[33] wl[34] wl[35] wl[36] wl[37] wl[38] wl[39] pd[0][0] pd[0][1] pd[0][2] pd[0][3] pd[0][4] pd[0][5] pd[0][6] pd[0][7] page[4] wl_en DP8TRowDecoderDriverPage_2PD8R_wl2
Xpage[5] vss vdd wl[40] wl[41] wl[42] wl[43] wl[44] wl[45] wl[46] wl[47] pd[0][0] pd[0][1] pd[0][2] pd[0][3] pd[0][4] pd[0][5] pd[0][6] pd[0][7] page[5] wl_en DP8TRowDecoderDriverPage_2PD8R_wl2
Xpage[6] vss vdd wl[48] wl[49] wl[50] wl[51] wl[52] wl[53] wl[54] wl[55] pd[0][0] pd[0][1] pd[0][2] pd[0][3] pd[0][4] pd[0][5] pd[0][6] pd[0][7] page[6] wl_en DP8TRowDecoderDriverPage_2PD8R_wl2
Xpage[7] vss vdd wl[56] wl[57] wl[58] wl[59] wl[60] wl[61] wl[62] wl[63] pd[0][0] pd[0][1] pd[0][2] pd[0][3] pd[0][4] pd[0][5] pd[0][6] pd[0][7] page[7] wl_en DP8TRowDecoderDriverPage_2PD8R_wl2
Xpage[8] vss vdd wl[64] wl[65] wl[66] wl[67] wl[68] wl[69] wl[70] wl[71] pd[0][0] pd[0][1] pd[0][2] pd[0][3] pd[0][4] pd[0][5] pd[0][6] pd[0][7] page[8] wl_en DP8TRowDecoderDriverPage_2PD8R_wl2
Xpage[9] vss vdd wl[72] wl[73] wl[74] wl[75] wl[76] wl[77] wl[78] wl[79] pd[0][0] pd[0][1] pd[0][2] pd[0][3] pd[0][4] pd[0][5] pd[0][6] pd[0][7] page[9] wl_en DP8TRowDecoderDriverPage_2PD8R_wl2
Xpage[10] vss vdd wl[80] wl[81] wl[82] wl[83] wl[84] wl[85] wl[86] wl[87] pd[0][0] pd[0][1] pd[0][2] pd[0][3] pd[0][4] pd[0][5] pd[0][6] pd[0][7] page[10] wl_en DP8TRowDecoderDriverPage_2PD8R_wl2
Xpage[11] vss vdd wl[88] wl[89] wl[90] wl[91] wl[92] wl[93] wl[94] wl[95] pd[0][0] pd[0][1] pd[0][2] pd[0][3] pd[0][4] pd[0][5] pd[0][6] pd[0][7] page[11] wl_en DP8TRowDecoderDriverPage_2PD8R_wl2
Xpage[12] vss vdd wl[96] wl[97] wl[98] wl[99] wl[100] wl[101] wl[102] wl[103] pd[0][0] pd[0][1] pd[0][2] pd[0][3] pd[0][4] pd[0][5] pd[0][6] pd[0][7] page[12] wl_en DP8TRowDecoderDriverPage_2PD8R_wl2
Xpage[13] vss vdd wl[104] wl[105] wl[106] wl[107] wl[108] wl[109] wl[110] wl[111] pd[0][0] pd[0][1] pd[0][2] pd[0][3] pd[0][4] pd[0][5] pd[0][6] pd[0][7] page[13] wl_en DP8TRowDecoderDriverPage_2PD8R_wl2
Xpage[14] vss vdd wl[112] wl[113] wl[114] wl[115] wl[116] wl[117] wl[118] wl[119] pd[0][0] pd[0][1] pd[0][2] pd[0][3] pd[0][4] pd[0][5] pd[0][6] pd[0][7] page[14] wl_en DP8TRowDecoderDriverPage_2PD8R_wl2
Xpage[15] vss vdd wl[120] wl[121] wl[122] wl[123] wl[124] wl[125] wl[126] wl[127] pd[0][0] pd[0][1] pd[0][2] pd[0][3] pd[0][4] pd[0][5] pd[0][6] pd[0][7] page[15] wl_en DP8TRowDecoderDriverPage_2PD8R_wl2
Xbulkcon[0] vdd vss DP8TRowDecoderBulkConn
Xbulkcon[1] vdd vss DP8TRowDecoderBulkConn
Xbulkcon[2] vdd vss DP8TRowDecoderBulkConn
Xbulkcon[3] vdd vss DP8TRowDecoderBulkConn
Xbulkcon[4] vdd vss DP8TRowDecoderBulkConn
Xbulkcon[5] vdd vss DP8TRowDecoderBulkConn
Xbulkcon[6] vdd vss DP8TRowDecoderBulkConn
Xbulkcon[7] vdd vss DP8TRowDecoderBulkConn
Xbulkcon[8] vdd vss DP8TRowDecoderBulkConn
.ends DP8TRowDecoder_3_4B_wl2

.subckt DP8TRowPeriphery_3_4_2_wl2 vss vdd clk a[0] a[1] a[2] a[3] a[4] a[5] a[6] a[7] a[8] wl[0] wl[1] wl[2] wl[3] wl[4] wl[5] wl[6] wl[7] wl[8] wl[9] wl[10] wl[11] wl[12] wl[13] wl[14] wl[15] wl[16] wl[17] wl[18] wl[19] wl[20] wl[21] wl[22] wl[23] wl[24] wl[25] wl[26] wl[27] wl[28] wl[29] wl[30] wl[31] wl[32] wl[33] wl[34] wl[35] wl[36] wl[37] wl[38] wl[39] wl[40] wl[41] wl[42] wl[43] wl[44] wl[45] wl[46] wl[47] wl[48] wl[49] wl[50] wl[51] wl[52] wl[53] wl[54] wl[55] wl[56] wl[57] wl[58] wl[59] wl[60] wl[61] wl[62] wl[63] wl[64] wl[65] wl[66] wl[67] wl[68] wl[69] wl[70] wl[71] wl[72] wl[73] wl[74] wl[75] wl[76] wl[77] wl[78] wl[79] wl[80] wl[81] wl[82] wl[83] wl[84] wl[85] wl[86] wl[87] wl[88] wl[89] wl[90] wl[91] wl[92] wl[93] wl[94] wl[95] wl[96] wl[97] wl[98] wl[99] wl[100] wl[101] wl[102] wl[103] wl[104] wl[105] wl[106] wl[107] wl[108] wl[109] wl[110] wl[111] wl[112] wl[113] wl[114] wl[115] wl[116] wl[117] wl[118] wl[119] wl[120] wl[121] wl[122] wl[123] wl[124] wl[125] wl[126] wl[127] mux[0] mux[1] mux[2] mux[3] columnclk precharge_n we_en